<?xml version="1.0" encoding="UTF-8"?><Package xmlns="http://soap.sforce.com/2006/04/metadata">
<types><name>Flow</name><members>testSvlachakis_Flow</members><members>SvlachakisAccountTest</members></types>
<version>59.0</version></Package>