<?xml version="1.0" encoding="UTF-8"?><Package xmlns="http://soap.sforce.com/2006/04/metadata">
<types><name>Flow</name><members>test_Screen</members><members>platform_Flow_AL</members><members>AUtoluach</members><members>Account_Updated_Adv</members><members>platform_email_flow</members><members>AUtolaunch_F_NEw</members><members>Process1</members><members>AL_Flow_TEst</members><members>rec_trig_AL</members><members>process2</members><members>MarkTest</members><members>Test</members><members>Flow_AL_Date</members><members>FlowAllMeta_test</members><members>process_builder_new</members><members>X1Flow</members><members>newFlow</members><members>NEwqa3</members><members>flow_complex</members><members>X12_12regression</members></types>
<version>59.0</version></Package>